/*--------------------------------*- C++ -*----------------------------------*\
| =========                 |                                                 |
| \\      /  F ield         | OpenFOAM: The Open Source CFD Toolbox           |
|  \\    /   O peration     | Version:  2.0.0                                 |
|   \\  /    A nd           | Web:      www.OpenFOAM.com                      |
|    \\/     M anipulation  |                                                 |
\*---------------------------------------------------------------------------*/
FoamFile
{
    version     2.0;
    format      ascii;
    class       volScalarField;
    location    "0";
    object      epsilon;
}
// * * * * * * * * * * * * * * * * * * * * * * * * * * * * * * * * * * * * * //

dimensions      [0 2 -3 0 0 0 0];

internalField   uniform 0.104674477;

boundaryField
{

    top
    {
        type            slip;
    }
    inlet
    {
        type            atmBoundaryLayerInletEpsilon;
        #include        "include/ABLConditions"
    }
    outlet
    {
        type            zeroGradient;
    }
    ground
    {
        type            epsilonWallFunction;
        value           uniform 0.104674477;
    }
    cube
    {
        type            epsilonWallFunction;
        value           uniform 0.104674477;
    }
    windward
    {
        type            epsilonWallFunction;
        value           uniform 0.104674477;
    }
    overhang
    {
        type            epsilonWallFunction;
        value           uniform 0.104674477;
    }
    sides
    {
		type			slip;
    }
}


// ************************************************************************* //
